[General]
network = Network
sim-time-limit = 2000s
**.param-record-as-scalar = false
**.scalar-recording = true
**.statistic-recording = true
**.vector-recording = true
