[General]
network = Network
print-undisposed = false
repeat = 2
sim-time-limit = 500s
**.param-record-as-scalar = false
**.scalar-recording = true
**.statistic-recording = true
**.vector-recording = true
